1280
blah
C 0 0 0
H1 -0.748756 -0.748756 -0.748756
H2 0.748756 -0.748756 0.748756
H3 -0.748756 0.748756 0.748756
H4 0.748756 0.748756 -0.748756
C 2.06236 0 0
H1 1.31361 -0.748756 -0.748756
H2 2.81112 -0.748756 0.748756
H3 1.31361 0.748756 0.748756
H4 2.81112 0.748756 -0.748756
C 4.12473 0 0
H1 3.37597 -0.748756 -0.748756
H2 4.87348 -0.748756 0.748756
H3 3.37597 0.748756 0.748756
H4 4.87348 0.748756 -0.748756
C 6.18709 0 0
H1 5.43833 -0.748756 -0.748756
H2 6.93584 -0.748756 0.748756
H3 5.43833 0.748756 0.748756
H4 6.93584 0.748756 -0.748756
C 1.03118 0 1.03118
H1 0.282426 -0.748756 0.282426
H2 1.77994 -0.748756 1.77994
H3 0.282426 0.748756 1.77994
H4 1.77994 0.748756 0.282426
C 3.09354 0 1.03118
H1 2.34479 -0.748756 0.282426
H2 3.8423 -0.748756 1.77994
H3 2.34479 0.748756 1.77994
H4 3.8423 0.748756 0.282426
C 5.15591 0 1.03118
H1 4.40715 -0.748756 0.282426
H2 5.90466 -0.748756 1.77994
H3 4.40715 0.748756 1.77994
H4 5.90466 0.748756 0.282426
C 0 0 2.06236
H1 -0.748756 -0.748756 1.31361
H2 0.748756 -0.748756 2.81112
H3 -0.748756 0.748756 2.81112
H4 0.748756 0.748756 1.31361
C 2.06236 0 2.06236
H1 1.31361 -0.748756 1.31361
H2 2.81112 -0.748756 2.81112
H3 1.31361 0.748756 2.81112
H4 2.81112 0.748756 1.31361
C 4.12473 0 2.06236
H1 3.37597 -0.748756 1.31361
H2 4.87348 -0.748756 2.81112
H3 3.37597 0.748756 2.81112
H4 4.87348 0.748756 1.31361
C 6.18709 0 2.06236
H1 5.43833 -0.748756 1.31361
H2 6.93584 -0.748756 2.81112
H3 5.43833 0.748756 2.81112
H4 6.93584 0.748756 1.31361
C 1.03118 0 3.09354
H1 0.282426 -0.748756 2.34479
H2 1.77994 -0.748756 3.8423
H3 0.282426 0.748756 3.8423
H4 1.77994 0.748756 2.34479
C 3.09354 0 3.09354
H1 2.34479 -0.748756 2.34479
H2 3.8423 -0.748756 3.8423
H3 2.34479 0.748756 3.8423
H4 3.8423 0.748756 2.34479
C 5.15591 0 3.09354
H1 4.40715 -0.748756 2.34479
H2 5.90466 -0.748756 3.8423
H3 4.40715 0.748756 3.8423
H4 5.90466 0.748756 2.34479
C 0 0 4.12473
H1 -0.748756 -0.748756 3.37597
H2 0.748756 -0.748756 4.87348
H3 -0.748756 0.748756 4.87348
H4 0.748756 0.748756 3.37597
C 2.06236 0 4.12473
H1 1.31361 -0.748756 3.37597
H2 2.81112 -0.748756 4.87348
H3 1.31361 0.748756 4.87348
H4 2.81112 0.748756 3.37597
C 4.12473 0 4.12473
H1 3.37597 -0.748756 3.37597
H2 4.87348 -0.748756 4.87348
H3 3.37597 0.748756 4.87348
H4 4.87348 0.748756 3.37597
C 6.18709 0 4.12473
H1 5.43833 -0.748756 3.37597
H2 6.93584 -0.748756 4.87348
H3 5.43833 0.748756 4.87348
H4 6.93584 0.748756 3.37597
C 1.03118 0 5.15591
H1 0.282426 -0.748756 4.40715
H2 1.77994 -0.748756 5.90466
H3 0.282426 0.748756 5.90466
H4 1.77994 0.748756 4.40715
C 3.09354 0 5.15591
H1 2.34479 -0.748756 4.40715
H2 3.8423 -0.748756 5.90466
H3 2.34479 0.748756 5.90466
H4 3.8423 0.748756 4.40715
C 5.15591 0 5.15591
H1 4.40715 -0.748756 4.40715
H2 5.90466 -0.748756 5.90466
H3 4.40715 0.748756 5.90466
H4 5.90466 0.748756 4.40715
C 0 0 6.18709
H1 -0.748756 -0.748756 5.43833
H2 0.748756 -0.748756 6.93584
H3 -0.748756 0.748756 6.93584
H4 0.748756 0.748756 5.43833
C 2.06236 0 6.18709
H1 1.31361 -0.748756 5.43833
H2 2.81112 -0.748756 6.93584
H3 1.31361 0.748756 6.93584
H4 2.81112 0.748756 5.43833
C 4.12473 0 6.18709
H1 3.37597 -0.748756 5.43833
H2 4.87348 -0.748756 6.93584
H3 3.37597 0.748756 6.93584
H4 4.87348 0.748756 5.43833
C 6.18709 0 6.18709
H1 5.43833 -0.748756 5.43833
H2 6.93584 -0.748756 6.93584
H3 5.43833 0.748756 6.93584
H4 6.93584 0.748756 5.43833
C 1.03118 1.03118 0
H1 0.282426 0.282426 -0.748756
H2 1.77994 0.282426 0.748756
H3 0.282426 1.77994 0.748756
H4 1.77994 1.77994 -0.748756
C 3.09354 1.03118 0
H1 2.34479 0.282426 -0.748756
H2 3.8423 0.282426 0.748756
H3 2.34479 1.77994 0.748756
H4 3.8423 1.77994 -0.748756
C 5.15591 1.03118 0
H1 4.40715 0.282426 -0.748756
H2 5.90466 0.282426 0.748756
H3 4.40715 1.77994 0.748756
H4 5.90466 1.77994 -0.748756
C 0 1.03118 1.03118
H1 -0.748756 0.282426 0.282426
H2 0.748756 0.282426 1.77994
H3 -0.748756 1.77994 1.77994
H4 0.748756 1.77994 0.282426
C 2.06236 1.03118 1.03118
H1 1.31361 0.282426 0.282426
H2 2.81112 0.282426 1.77994
H3 1.31361 1.77994 1.77994
H4 2.81112 1.77994 0.282426
C 4.12473 1.03118 1.03118
H1 3.37597 0.282426 0.282426
H2 4.87348 0.282426 1.77994
H3 3.37597 1.77994 1.77994
H4 4.87348 1.77994 0.282426
C 6.18709 1.03118 1.03118
H1 5.43833 0.282426 0.282426
H2 6.93584 0.282426 1.77994
H3 5.43833 1.77994 1.77994
H4 6.93584 1.77994 0.282426
C 1.03118 1.03118 2.06236
H1 0.282426 0.282426 1.31361
H2 1.77994 0.282426 2.81112
H3 0.282426 1.77994 2.81112
H4 1.77994 1.77994 1.31361
C 3.09354 1.03118 2.06236
H1 2.34479 0.282426 1.31361
H2 3.8423 0.282426 2.81112
H3 2.34479 1.77994 2.81112
H4 3.8423 1.77994 1.31361
C 5.15591 1.03118 2.06236
H1 4.40715 0.282426 1.31361
H2 5.90466 0.282426 2.81112
H3 4.40715 1.77994 2.81112
H4 5.90466 1.77994 1.31361
C 0 1.03118 3.09354
H1 -0.748756 0.282426 2.34479
H2 0.748756 0.282426 3.8423
H3 -0.748756 1.77994 3.8423
H4 0.748756 1.77994 2.34479
C 2.06236 1.03118 3.09354
H1 1.31361 0.282426 2.34479
H2 2.81112 0.282426 3.8423
H3 1.31361 1.77994 3.8423
H4 2.81112 1.77994 2.34479
C 4.12473 1.03118 3.09354
H1 3.37597 0.282426 2.34479
H2 4.87348 0.282426 3.8423
H3 3.37597 1.77994 3.8423
H4 4.87348 1.77994 2.34479
C 6.18709 1.03118 3.09354
H1 5.43833 0.282426 2.34479
H2 6.93584 0.282426 3.8423
H3 5.43833 1.77994 3.8423
H4 6.93584 1.77994 2.34479
C 1.03118 1.03118 4.12473
H1 0.282426 0.282426 3.37597
H2 1.77994 0.282426 4.87348
H3 0.282426 1.77994 4.87348
H4 1.77994 1.77994 3.37597
C 3.09354 1.03118 4.12473
H1 2.34479 0.282426 3.37597
H2 3.8423 0.282426 4.87348
H3 2.34479 1.77994 4.87348
H4 3.8423 1.77994 3.37597
C 5.15591 1.03118 4.12473
H1 4.40715 0.282426 3.37597
H2 5.90466 0.282426 4.87348
H3 4.40715 1.77994 4.87348
H4 5.90466 1.77994 3.37597
C 0 1.03118 5.15591
H1 -0.748756 0.282426 4.40715
H2 0.748756 0.282426 5.90466
H3 -0.748756 1.77994 5.90466
H4 0.748756 1.77994 4.40715
C 2.06236 1.03118 5.15591
H1 1.31361 0.282426 4.40715
H2 2.81112 0.282426 5.90466
H3 1.31361 1.77994 5.90466
H4 2.81112 1.77994 4.40715
C 4.12473 1.03118 5.15591
H1 3.37597 0.282426 4.40715
H2 4.87348 0.282426 5.90466
H3 3.37597 1.77994 5.90466
H4 4.87348 1.77994 4.40715
C 6.18709 1.03118 5.15591
H1 5.43833 0.282426 4.40715
H2 6.93584 0.282426 5.90466
H3 5.43833 1.77994 5.90466
H4 6.93584 1.77994 4.40715
C 1.03118 1.03118 6.18709
H1 0.282426 0.282426 5.43833
H2 1.77994 0.282426 6.93584
H3 0.282426 1.77994 6.93584
H4 1.77994 1.77994 5.43833
C 3.09354 1.03118 6.18709
H1 2.34479 0.282426 5.43833
H2 3.8423 0.282426 6.93584
H3 2.34479 1.77994 6.93584
H4 3.8423 1.77994 5.43833
C 5.15591 1.03118 6.18709
H1 4.40715 0.282426 5.43833
H2 5.90466 0.282426 6.93584
H3 4.40715 1.77994 6.93584
H4 5.90466 1.77994 5.43833
C 0 2.06236 0
H1 -0.748756 1.31361 -0.748756
H2 0.748756 1.31361 0.748756
H3 -0.748756 2.81112 0.748756
H4 0.748756 2.81112 -0.748756
C 2.06236 2.06236 0
H1 1.31361 1.31361 -0.748756
H2 2.81112 1.31361 0.748756
H3 1.31361 2.81112 0.748756
H4 2.81112 2.81112 -0.748756
C 4.12473 2.06236 0
H1 3.37597 1.31361 -0.748756
H2 4.87348 1.31361 0.748756
H3 3.37597 2.81112 0.748756
H4 4.87348 2.81112 -0.748756
C 6.18709 2.06236 0
H1 5.43833 1.31361 -0.748756
H2 6.93584 1.31361 0.748756
H3 5.43833 2.81112 0.748756
H4 6.93584 2.81112 -0.748756
C 1.03118 2.06236 1.03118
H1 0.282426 1.31361 0.282426
H2 1.77994 1.31361 1.77994
H3 0.282426 2.81112 1.77994
H4 1.77994 2.81112 0.282426
C 3.09354 2.06236 1.03118
H1 2.34479 1.31361 0.282426
H2 3.8423 1.31361 1.77994
H3 2.34479 2.81112 1.77994
H4 3.8423 2.81112 0.282426
C 5.15591 2.06236 1.03118
H1 4.40715 1.31361 0.282426
H2 5.90466 1.31361 1.77994
H3 4.40715 2.81112 1.77994
H4 5.90466 2.81112 0.282426
C 0 2.06236 2.06236
H1 -0.748756 1.31361 1.31361
H2 0.748756 1.31361 2.81112
H3 -0.748756 2.81112 2.81112
H4 0.748756 2.81112 1.31361
C 2.06236 2.06236 2.06236
H1 1.31361 1.31361 1.31361
H2 2.81112 1.31361 2.81112
H3 1.31361 2.81112 2.81112
H4 2.81112 2.81112 1.31361
C 4.12473 2.06236 2.06236
H1 3.37597 1.31361 1.31361
H2 4.87348 1.31361 2.81112
H3 3.37597 2.81112 2.81112
H4 4.87348 2.81112 1.31361
C 6.18709 2.06236 2.06236
H1 5.43833 1.31361 1.31361
H2 6.93584 1.31361 2.81112
H3 5.43833 2.81112 2.81112
H4 6.93584 2.81112 1.31361
C 1.03118 2.06236 3.09354
H1 0.282426 1.31361 2.34479
H2 1.77994 1.31361 3.8423
H3 0.282426 2.81112 3.8423
H4 1.77994 2.81112 2.34479
C 3.09354 2.06236 3.09354
H1 2.34479 1.31361 2.34479
H2 3.8423 1.31361 3.8423
H3 2.34479 2.81112 3.8423
H4 3.8423 2.81112 2.34479
C 5.15591 2.06236 3.09354
H1 4.40715 1.31361 2.34479
H2 5.90466 1.31361 3.8423
H3 4.40715 2.81112 3.8423
H4 5.90466 2.81112 2.34479
C 0 2.06236 4.12473
H1 -0.748756 1.31361 3.37597
H2 0.748756 1.31361 4.87348
H3 -0.748756 2.81112 4.87348
H4 0.748756 2.81112 3.37597
C 2.06236 2.06236 4.12473
H1 1.31361 1.31361 3.37597
H2 2.81112 1.31361 4.87348
H3 1.31361 2.81112 4.87348
H4 2.81112 2.81112 3.37597
C 4.12473 2.06236 4.12473
H1 3.37597 1.31361 3.37597
H2 4.87348 1.31361 4.87348
H3 3.37597 2.81112 4.87348
H4 4.87348 2.81112 3.37597
C 6.18709 2.06236 4.12473
H1 5.43833 1.31361 3.37597
H2 6.93584 1.31361 4.87348
H3 5.43833 2.81112 4.87348
H4 6.93584 2.81112 3.37597
C 1.03118 2.06236 5.15591
H1 0.282426 1.31361 4.40715
H2 1.77994 1.31361 5.90466
H3 0.282426 2.81112 5.90466
H4 1.77994 2.81112 4.40715
C 3.09354 2.06236 5.15591
H1 2.34479 1.31361 4.40715
H2 3.8423 1.31361 5.90466
H3 2.34479 2.81112 5.90466
H4 3.8423 2.81112 4.40715
C 5.15591 2.06236 5.15591
H1 4.40715 1.31361 4.40715
H2 5.90466 1.31361 5.90466
H3 4.40715 2.81112 5.90466
H4 5.90466 2.81112 4.40715
C 0 2.06236 6.18709
H1 -0.748756 1.31361 5.43833
H2 0.748756 1.31361 6.93584
H3 -0.748756 2.81112 6.93584
H4 0.748756 2.81112 5.43833
C 2.06236 2.06236 6.18709
H1 1.31361 1.31361 5.43833
H2 2.81112 1.31361 6.93584
H3 1.31361 2.81112 6.93584
H4 2.81112 2.81112 5.43833
C 4.12473 2.06236 6.18709
H1 3.37597 1.31361 5.43833
H2 4.87348 1.31361 6.93584
H3 3.37597 2.81112 6.93584
H4 4.87348 2.81112 5.43833
C 6.18709 2.06236 6.18709
H1 5.43833 1.31361 5.43833
H2 6.93584 1.31361 6.93584
H3 5.43833 2.81112 6.93584
H4 6.93584 2.81112 5.43833
C 1.03118 3.09354 0
H1 0.282426 2.34479 -0.748756
H2 1.77994 2.34479 0.748756
H3 0.282426 3.8423 0.748756
H4 1.77994 3.8423 -0.748756
C 3.09354 3.09354 0
H1 2.34479 2.34479 -0.748756
H2 3.8423 2.34479 0.748756
H3 2.34479 3.8423 0.748756
H4 3.8423 3.8423 -0.748756
C 5.15591 3.09354 0
H1 4.40715 2.34479 -0.748756
H2 5.90466 2.34479 0.748756
H3 4.40715 3.8423 0.748756
H4 5.90466 3.8423 -0.748756
C 0 3.09354 1.03118
H1 -0.748756 2.34479 0.282426
H2 0.748756 2.34479 1.77994
H3 -0.748756 3.8423 1.77994
H4 0.748756 3.8423 0.282426
C 2.06236 3.09354 1.03118
H1 1.31361 2.34479 0.282426
H2 2.81112 2.34479 1.77994
H3 1.31361 3.8423 1.77994
H4 2.81112 3.8423 0.282426
C 4.12473 3.09354 1.03118
H1 3.37597 2.34479 0.282426
H2 4.87348 2.34479 1.77994
H3 3.37597 3.8423 1.77994
H4 4.87348 3.8423 0.282426
C 6.18709 3.09354 1.03118
H1 5.43833 2.34479 0.282426
H2 6.93584 2.34479 1.77994
H3 5.43833 3.8423 1.77994
H4 6.93584 3.8423 0.282426
C 1.03118 3.09354 2.06236
H1 0.282426 2.34479 1.31361
H2 1.77994 2.34479 2.81112
H3 0.282426 3.8423 2.81112
H4 1.77994 3.8423 1.31361
C 3.09354 3.09354 2.06236
H1 2.34479 2.34479 1.31361
H2 3.8423 2.34479 2.81112
H3 2.34479 3.8423 2.81112
H4 3.8423 3.8423 1.31361
C 5.15591 3.09354 2.06236
H1 4.40715 2.34479 1.31361
H2 5.90466 2.34479 2.81112
H3 4.40715 3.8423 2.81112
H4 5.90466 3.8423 1.31361
C 0 3.09354 3.09354
H1 -0.748756 2.34479 2.34479
H2 0.748756 2.34479 3.8423
H3 -0.748756 3.8423 3.8423
H4 0.748756 3.8423 2.34479
C 2.06236 3.09354 3.09354
H1 1.31361 2.34479 2.34479
H2 2.81112 2.34479 3.8423
H3 1.31361 3.8423 3.8423
H4 2.81112 3.8423 2.34479
C 4.12473 3.09354 3.09354
H1 3.37597 2.34479 2.34479
H2 4.87348 2.34479 3.8423
H3 3.37597 3.8423 3.8423
H4 4.87348 3.8423 2.34479
C 6.18709 3.09354 3.09354
H1 5.43833 2.34479 2.34479
H2 6.93584 2.34479 3.8423
H3 5.43833 3.8423 3.8423
H4 6.93584 3.8423 2.34479
C 1.03118 3.09354 4.12473
H1 0.282426 2.34479 3.37597
H2 1.77994 2.34479 4.87348
H3 0.282426 3.8423 4.87348
H4 1.77994 3.8423 3.37597
C 3.09354 3.09354 4.12473
H1 2.34479 2.34479 3.37597
H2 3.8423 2.34479 4.87348
H3 2.34479 3.8423 4.87348
H4 3.8423 3.8423 3.37597
C 5.15591 3.09354 4.12473
H1 4.40715 2.34479 3.37597
H2 5.90466 2.34479 4.87348
H3 4.40715 3.8423 4.87348
H4 5.90466 3.8423 3.37597
C 0 3.09354 5.15591
H1 -0.748756 2.34479 4.40715
H2 0.748756 2.34479 5.90466
H3 -0.748756 3.8423 5.90466
H4 0.748756 3.8423 4.40715
C 2.06236 3.09354 5.15591
H1 1.31361 2.34479 4.40715
H2 2.81112 2.34479 5.90466
H3 1.31361 3.8423 5.90466
H4 2.81112 3.8423 4.40715
C 4.12473 3.09354 5.15591
H1 3.37597 2.34479 4.40715
H2 4.87348 2.34479 5.90466
H3 3.37597 3.8423 5.90466
H4 4.87348 3.8423 4.40715
C 6.18709 3.09354 5.15591
H1 5.43833 2.34479 4.40715
H2 6.93584 2.34479 5.90466
H3 5.43833 3.8423 5.90466
H4 6.93584 3.8423 4.40715
C 1.03118 3.09354 6.18709
H1 0.282426 2.34479 5.43833
H2 1.77994 2.34479 6.93584
H3 0.282426 3.8423 6.93584
H4 1.77994 3.8423 5.43833
C 3.09354 3.09354 6.18709
H1 2.34479 2.34479 5.43833
H2 3.8423 2.34479 6.93584
H3 2.34479 3.8423 6.93584
H4 3.8423 3.8423 5.43833
C 5.15591 3.09354 6.18709
H1 4.40715 2.34479 5.43833
H2 5.90466 2.34479 6.93584
H3 4.40715 3.8423 6.93584
H4 5.90466 3.8423 5.43833
C 0 4.12473 0
H1 -0.748756 3.37597 -0.748756
H2 0.748756 3.37597 0.748756
H3 -0.748756 4.87348 0.748756
H4 0.748756 4.87348 -0.748756
C 2.06236 4.12473 0
H1 1.31361 3.37597 -0.748756
H2 2.81112 3.37597 0.748756
H3 1.31361 4.87348 0.748756
H4 2.81112 4.87348 -0.748756
C 4.12473 4.12473 0
H1 3.37597 3.37597 -0.748756
H2 4.87348 3.37597 0.748756
H3 3.37597 4.87348 0.748756
H4 4.87348 4.87348 -0.748756
C 6.18709 4.12473 0
H1 5.43833 3.37597 -0.748756
H2 6.93584 3.37597 0.748756
H3 5.43833 4.87348 0.748756
H4 6.93584 4.87348 -0.748756
C 1.03118 4.12473 1.03118
H1 0.282426 3.37597 0.282426
H2 1.77994 3.37597 1.77994
H3 0.282426 4.87348 1.77994
H4 1.77994 4.87348 0.282426
C 3.09354 4.12473 1.03118
H1 2.34479 3.37597 0.282426
H2 3.8423 3.37597 1.77994
H3 2.34479 4.87348 1.77994
H4 3.8423 4.87348 0.282426
C 5.15591 4.12473 1.03118
H1 4.40715 3.37597 0.282426
H2 5.90466 3.37597 1.77994
H3 4.40715 4.87348 1.77994
H4 5.90466 4.87348 0.282426
C 0 4.12473 2.06236
H1 -0.748756 3.37597 1.31361
H2 0.748756 3.37597 2.81112
H3 -0.748756 4.87348 2.81112
H4 0.748756 4.87348 1.31361
C 2.06236 4.12473 2.06236
H1 1.31361 3.37597 1.31361
H2 2.81112 3.37597 2.81112
H3 1.31361 4.87348 2.81112
H4 2.81112 4.87348 1.31361
C 4.12473 4.12473 2.06236
H1 3.37597 3.37597 1.31361
H2 4.87348 3.37597 2.81112
H3 3.37597 4.87348 2.81112
H4 4.87348 4.87348 1.31361
C 6.18709 4.12473 2.06236
H1 5.43833 3.37597 1.31361
H2 6.93584 3.37597 2.81112
H3 5.43833 4.87348 2.81112
H4 6.93584 4.87348 1.31361
C 1.03118 4.12473 3.09354
H1 0.282426 3.37597 2.34479
H2 1.77994 3.37597 3.8423
H3 0.282426 4.87348 3.8423
H4 1.77994 4.87348 2.34479
C 3.09354 4.12473 3.09354
H1 2.34479 3.37597 2.34479
H2 3.8423 3.37597 3.8423
H3 2.34479 4.87348 3.8423
H4 3.8423 4.87348 2.34479
C 5.15591 4.12473 3.09354
H1 4.40715 3.37597 2.34479
H2 5.90466 3.37597 3.8423
H3 4.40715 4.87348 3.8423
H4 5.90466 4.87348 2.34479
C 0 4.12473 4.12473
H1 -0.748756 3.37597 3.37597
H2 0.748756 3.37597 4.87348
H3 -0.748756 4.87348 4.87348
H4 0.748756 4.87348 3.37597
C 2.06236 4.12473 4.12473
H1 1.31361 3.37597 3.37597
H2 2.81112 3.37597 4.87348
H3 1.31361 4.87348 4.87348
H4 2.81112 4.87348 3.37597
C 4.12473 4.12473 4.12473
H1 3.37597 3.37597 3.37597
H2 4.87348 3.37597 4.87348
H3 3.37597 4.87348 4.87348
H4 4.87348 4.87348 3.37597
C 6.18709 4.12473 4.12473
H1 5.43833 3.37597 3.37597
H2 6.93584 3.37597 4.87348
H3 5.43833 4.87348 4.87348
H4 6.93584 4.87348 3.37597
C 1.03118 4.12473 5.15591
H1 0.282426 3.37597 4.40715
H2 1.77994 3.37597 5.90466
H3 0.282426 4.87348 5.90466
H4 1.77994 4.87348 4.40715
C 3.09354 4.12473 5.15591
H1 2.34479 3.37597 4.40715
H2 3.8423 3.37597 5.90466
H3 2.34479 4.87348 5.90466
H4 3.8423 4.87348 4.40715
C 5.15591 4.12473 5.15591
H1 4.40715 3.37597 4.40715
H2 5.90466 3.37597 5.90466
H3 4.40715 4.87348 5.90466
H4 5.90466 4.87348 4.40715
C 0 4.12473 6.18709
H1 -0.748756 3.37597 5.43833
H2 0.748756 3.37597 6.93584
H3 -0.748756 4.87348 6.93584
H4 0.748756 4.87348 5.43833
C 2.06236 4.12473 6.18709
H1 1.31361 3.37597 5.43833
H2 2.81112 3.37597 6.93584
H3 1.31361 4.87348 6.93584
H4 2.81112 4.87348 5.43833
C 4.12473 4.12473 6.18709
H1 3.37597 3.37597 5.43833
H2 4.87348 3.37597 6.93584
H3 3.37597 4.87348 6.93584
H4 4.87348 4.87348 5.43833
C 6.18709 4.12473 6.18709
H1 5.43833 3.37597 5.43833
H2 6.93584 3.37597 6.93584
H3 5.43833 4.87348 6.93584
H4 6.93584 4.87348 5.43833
C 1.03118 5.15591 0
H1 0.282426 4.40715 -0.748756
H2 1.77994 4.40715 0.748756
H3 0.282426 5.90466 0.748756
H4 1.77994 5.90466 -0.748756
C 3.09354 5.15591 0
H1 2.34479 4.40715 -0.748756
H2 3.8423 4.40715 0.748756
H3 2.34479 5.90466 0.748756
H4 3.8423 5.90466 -0.748756
C 5.15591 5.15591 0
H1 4.40715 4.40715 -0.748756
H2 5.90466 4.40715 0.748756
H3 4.40715 5.90466 0.748756
H4 5.90466 5.90466 -0.748756
C 0 5.15591 1.03118
H1 -0.748756 4.40715 0.282426
H2 0.748756 4.40715 1.77994
H3 -0.748756 5.90466 1.77994
H4 0.748756 5.90466 0.282426
C 2.06236 5.15591 1.03118
H1 1.31361 4.40715 0.282426
H2 2.81112 4.40715 1.77994
H3 1.31361 5.90466 1.77994
H4 2.81112 5.90466 0.282426
C 4.12473 5.15591 1.03118
H1 3.37597 4.40715 0.282426
H2 4.87348 4.40715 1.77994
H3 3.37597 5.90466 1.77994
H4 4.87348 5.90466 0.282426
C 6.18709 5.15591 1.03118
H1 5.43833 4.40715 0.282426
H2 6.93584 4.40715 1.77994
H3 5.43833 5.90466 1.77994
H4 6.93584 5.90466 0.282426
C 1.03118 5.15591 2.06236
H1 0.282426 4.40715 1.31361
H2 1.77994 4.40715 2.81112
H3 0.282426 5.90466 2.81112
H4 1.77994 5.90466 1.31361
C 3.09354 5.15591 2.06236
H1 2.34479 4.40715 1.31361
H2 3.8423 4.40715 2.81112
H3 2.34479 5.90466 2.81112
H4 3.8423 5.90466 1.31361
C 5.15591 5.15591 2.06236
H1 4.40715 4.40715 1.31361
H2 5.90466 4.40715 2.81112
H3 4.40715 5.90466 2.81112
H4 5.90466 5.90466 1.31361
C 0 5.15591 3.09354
H1 -0.748756 4.40715 2.34479
H2 0.748756 4.40715 3.8423
H3 -0.748756 5.90466 3.8423
H4 0.748756 5.90466 2.34479
C 2.06236 5.15591 3.09354
H1 1.31361 4.40715 2.34479
H2 2.81112 4.40715 3.8423
H3 1.31361 5.90466 3.8423
H4 2.81112 5.90466 2.34479
C 4.12473 5.15591 3.09354
H1 3.37597 4.40715 2.34479
H2 4.87348 4.40715 3.8423
H3 3.37597 5.90466 3.8423
H4 4.87348 5.90466 2.34479
C 6.18709 5.15591 3.09354
H1 5.43833 4.40715 2.34479
H2 6.93584 4.40715 3.8423
H3 5.43833 5.90466 3.8423
H4 6.93584 5.90466 2.34479
C 1.03118 5.15591 4.12473
H1 0.282426 4.40715 3.37597
H2 1.77994 4.40715 4.87348
H3 0.282426 5.90466 4.87348
H4 1.77994 5.90466 3.37597
C 3.09354 5.15591 4.12473
H1 2.34479 4.40715 3.37597
H2 3.8423 4.40715 4.87348
H3 2.34479 5.90466 4.87348
H4 3.8423 5.90466 3.37597
C 5.15591 5.15591 4.12473
H1 4.40715 4.40715 3.37597
H2 5.90466 4.40715 4.87348
H3 4.40715 5.90466 4.87348
H4 5.90466 5.90466 3.37597
C 0 5.15591 5.15591
H1 -0.748756 4.40715 4.40715
H2 0.748756 4.40715 5.90466
H3 -0.748756 5.90466 5.90466
H4 0.748756 5.90466 4.40715
C 2.06236 5.15591 5.15591
H1 1.31361 4.40715 4.40715
H2 2.81112 4.40715 5.90466
H3 1.31361 5.90466 5.90466
H4 2.81112 5.90466 4.40715
C 4.12473 5.15591 5.15591
H1 3.37597 4.40715 4.40715
H2 4.87348 4.40715 5.90466
H3 3.37597 5.90466 5.90466
H4 4.87348 5.90466 4.40715
C 6.18709 5.15591 5.15591
H1 5.43833 4.40715 4.40715
H2 6.93584 4.40715 5.90466
H3 5.43833 5.90466 5.90466
H4 6.93584 5.90466 4.40715
C 1.03118 5.15591 6.18709
H1 0.282426 4.40715 5.43833
H2 1.77994 4.40715 6.93584
H3 0.282426 5.90466 6.93584
H4 1.77994 5.90466 5.43833
C 3.09354 5.15591 6.18709
H1 2.34479 4.40715 5.43833
H2 3.8423 4.40715 6.93584
H3 2.34479 5.90466 6.93584
H4 3.8423 5.90466 5.43833
C 5.15591 5.15591 6.18709
H1 4.40715 4.40715 5.43833
H2 5.90466 4.40715 6.93584
H3 4.40715 5.90466 6.93584
H4 5.90466 5.90466 5.43833
C 0 6.18709 0
H1 -0.748756 5.43833 -0.748756
H2 0.748756 5.43833 0.748756
H3 -0.748756 6.93584 0.748756
H4 0.748756 6.93584 -0.748756
C 2.06236 6.18709 0
H1 1.31361 5.43833 -0.748756
H2 2.81112 5.43833 0.748756
H3 1.31361 6.93584 0.748756
H4 2.81112 6.93584 -0.748756
C 4.12473 6.18709 0
H1 3.37597 5.43833 -0.748756
H2 4.87348 5.43833 0.748756
H3 3.37597 6.93584 0.748756
H4 4.87348 6.93584 -0.748756
C 6.18709 6.18709 0
H1 5.43833 5.43833 -0.748756
H2 6.93584 5.43833 0.748756
H3 5.43833 6.93584 0.748756
H4 6.93584 6.93584 -0.748756
C 1.03118 6.18709 1.03118
H1 0.282426 5.43833 0.282426
H2 1.77994 5.43833 1.77994
H3 0.282426 6.93584 1.77994
H4 1.77994 6.93584 0.282426
C 3.09354 6.18709 1.03118
H1 2.34479 5.43833 0.282426
H2 3.8423 5.43833 1.77994
H3 2.34479 6.93584 1.77994
H4 3.8423 6.93584 0.282426
C 5.15591 6.18709 1.03118
H1 4.40715 5.43833 0.282426
H2 5.90466 5.43833 1.77994
H3 4.40715 6.93584 1.77994
H4 5.90466 6.93584 0.282426
C 0 6.18709 2.06236
H1 -0.748756 5.43833 1.31361
H2 0.748756 5.43833 2.81112
H3 -0.748756 6.93584 2.81112
H4 0.748756 6.93584 1.31361
C 2.06236 6.18709 2.06236
H1 1.31361 5.43833 1.31361
H2 2.81112 5.43833 2.81112
H3 1.31361 6.93584 2.81112
H4 2.81112 6.93584 1.31361
C 4.12473 6.18709 2.06236
H1 3.37597 5.43833 1.31361
H2 4.87348 5.43833 2.81112
H3 3.37597 6.93584 2.81112
H4 4.87348 6.93584 1.31361
C 6.18709 6.18709 2.06236
H1 5.43833 5.43833 1.31361
H2 6.93584 5.43833 2.81112
H3 5.43833 6.93584 2.81112
H4 6.93584 6.93584 1.31361
C 1.03118 6.18709 3.09354
H1 0.282426 5.43833 2.34479
H2 1.77994 5.43833 3.8423
H3 0.282426 6.93584 3.8423
H4 1.77994 6.93584 2.34479
C 3.09354 6.18709 3.09354
H1 2.34479 5.43833 2.34479
H2 3.8423 5.43833 3.8423
H3 2.34479 6.93584 3.8423
H4 3.8423 6.93584 2.34479
C 5.15591 6.18709 3.09354
H1 4.40715 5.43833 2.34479
H2 5.90466 5.43833 3.8423
H3 4.40715 6.93584 3.8423
H4 5.90466 6.93584 2.34479
C 0 6.18709 4.12473
H1 -0.748756 5.43833 3.37597
H2 0.748756 5.43833 4.87348
H3 -0.748756 6.93584 4.87348
H4 0.748756 6.93584 3.37597
C 2.06236 6.18709 4.12473
H1 1.31361 5.43833 3.37597
H2 2.81112 5.43833 4.87348
H3 1.31361 6.93584 4.87348
H4 2.81112 6.93584 3.37597
C 4.12473 6.18709 4.12473
H1 3.37597 5.43833 3.37597
H2 4.87348 5.43833 4.87348
H3 3.37597 6.93584 4.87348
H4 4.87348 6.93584 3.37597
C 6.18709 6.18709 4.12473
H1 5.43833 5.43833 3.37597
H2 6.93584 5.43833 4.87348
H3 5.43833 6.93584 4.87348
H4 6.93584 6.93584 3.37597
C 1.03118 6.18709 5.15591
H1 0.282426 5.43833 4.40715
H2 1.77994 5.43833 5.90466
H3 0.282426 6.93584 5.90466
H4 1.77994 6.93584 4.40715
C 3.09354 6.18709 5.15591
H1 2.34479 5.43833 4.40715
H2 3.8423 5.43833 5.90466
H3 2.34479 6.93584 5.90466
H4 3.8423 6.93584 4.40715
C 5.15591 6.18709 5.15591
H1 4.40715 5.43833 4.40715
H2 5.90466 5.43833 5.90466
H3 4.40715 6.93584 5.90466
H4 5.90466 6.93584 4.40715
C 0 6.18709 6.18709
H1 -0.748756 5.43833 5.43833
H2 0.748756 5.43833 6.93584
H3 -0.748756 6.93584 6.93584
H4 0.748756 6.93584 5.43833
C 2.06236 6.18709 6.18709
H1 1.31361 5.43833 5.43833
H2 2.81112 5.43833 6.93584
H3 1.31361 6.93584 6.93584
H4 2.81112 6.93584 5.43833
C 4.12473 6.18709 6.18709
H1 3.37597 5.43833 5.43833
H2 4.87348 5.43833 6.93584
H3 3.37597 6.93584 6.93584
H4 4.87348 6.93584 5.43833
C 6.18709 6.18709 6.18709
H1 5.43833 5.43833 5.43833
H2 6.93584 5.43833 6.93584
H3 5.43833 6.93584 6.93584
H4 6.93584 6.93584 5.43833
C 0 0 0
H1 -0.748756 -0.748756 -0.748756
H2 0.748756 -0.748756 0.748756
H3 -0.748756 0.748756 0.748756
H4 0.748756 0.748756 -0.748756
C 0 0 0
H1 -0.748756 -0.748756 -0.748756
H2 0.748756 -0.748756 0.748756
H3 -0.748756 0.748756 0.748756
H4 0.748756 0.748756 -0.748756
C 0 0 0
H1 -0.748756 -0.748756 -0.748756
H2 0.748756 -0.748756 0.748756
H3 -0.748756 0.748756 0.748756
H4 0.748756 0.748756 -0.748756
C 0 0 0
H1 -0.748756 -0.748756 -0.748756
H2 0.748756 -0.748756 0.748756
H3 -0.748756 0.748756 0.748756
H4 0.748756 0.748756 -0.748756
C 0 0 0
H1 -0.748756 -0.748756 -0.748756
H2 0.748756 -0.748756 0.748756
H3 -0.748756 0.748756 0.748756
H4 0.748756 0.748756 -0.748756
C 0 0 0
H1 -0.748756 -0.748756 -0.748756
H2 0.748756 -0.748756 0.748756
H3 -0.748756 0.748756 0.748756
H4 0.748756 0.748756 -0.748756
C 0 0 0
H1 -0.748756 -0.748756 -0.748756
H2 0.748756 -0.748756 0.748756
H3 -0.748756 0.748756 0.748756
H4 0.748756 0.748756 -0.748756
C 0 0 0
H1 -0.748756 -0.748756 -0.748756
H2 0.748756 -0.748756 0.748756
H3 -0.748756 0.748756 0.748756
H4 0.748756 0.748756 -0.748756
C 0 0 0
H1 -0.748756 -0.748756 -0.748756
H2 0.748756 -0.748756 0.748756
H3 -0.748756 0.748756 0.748756
H4 0.748756 0.748756 -0.748756
C 0 0 0
H1 -0.748756 -0.748756 -0.748756
H2 0.748756 -0.748756 0.748756
H3 -0.748756 0.748756 0.748756
H4 0.748756 0.748756 -0.748756
C 0 0 0
H1 -0.748756 -0.748756 -0.748756
H2 0.748756 -0.748756 0.748756
H3 -0.748756 0.748756 0.748756
H4 0.748756 0.748756 -0.748756
C 0 0 0
H1 -0.748756 -0.748756 -0.748756
H2 0.748756 -0.748756 0.748756
H3 -0.748756 0.748756 0.748756
H4 0.748756 0.748756 -0.748756
C 0 0 0
H1 -0.748756 -0.748756 -0.748756
H2 0.748756 -0.748756 0.748756
H3 -0.748756 0.748756 0.748756
H4 0.748756 0.748756 -0.748756
C 0 0 0
H1 -0.748756 -0.748756 -0.748756
H2 0.748756 -0.748756 0.748756
H3 -0.748756 0.748756 0.748756
H4 0.748756 0.748756 -0.748756
C 0 0 0
H1 -0.748756 -0.748756 -0.748756
H2 0.748756 -0.748756 0.748756
H3 -0.748756 0.748756 0.748756
H4 0.748756 0.748756 -0.748756
C 0 0 0
H1 -0.748756 -0.748756 -0.748756
H2 0.748756 -0.748756 0.748756
H3 -0.748756 0.748756 0.748756
H4 0.748756 0.748756 -0.748756
C 0 0 0
H1 -0.748756 -0.748756 -0.748756
H2 0.748756 -0.748756 0.748756
H3 -0.748756 0.748756 0.748756
H4 0.748756 0.748756 -0.748756
C 0 0 0
H1 -0.748756 -0.748756 -0.748756
H2 0.748756 -0.748756 0.748756
H3 -0.748756 0.748756 0.748756
H4 0.748756 0.748756 -0.748756
C 0 0 0
H1 -0.748756 -0.748756 -0.748756
H2 0.748756 -0.748756 0.748756
H3 -0.748756 0.748756 0.748756
H4 0.748756 0.748756 -0.748756
C 0 0 0
H1 -0.748756 -0.748756 -0.748756
H2 0.748756 -0.748756 0.748756
H3 -0.748756 0.748756 0.748756
H4 0.748756 0.748756 -0.748756
C 0 0 0
H1 -0.748756 -0.748756 -0.748756
H2 0.748756 -0.748756 0.748756
H3 -0.748756 0.748756 0.748756
H4 0.748756 0.748756 -0.748756
C 0 0 0
H1 -0.748756 -0.748756 -0.748756
H2 0.748756 -0.748756 0.748756
H3 -0.748756 0.748756 0.748756
H4 0.748756 0.748756 -0.748756
C 0 0 0
H1 -0.748756 -0.748756 -0.748756
H2 0.748756 -0.748756 0.748756
H3 -0.748756 0.748756 0.748756
H4 0.748756 0.748756 -0.748756
C 0 0 0
H1 -0.748756 -0.748756 -0.748756
H2 0.748756 -0.748756 0.748756
H3 -0.748756 0.748756 0.748756
H4 0.748756 0.748756 -0.748756
C 0 0 0
H1 -0.748756 -0.748756 -0.748756
H2 0.748756 -0.748756 0.748756
H3 -0.748756 0.748756 0.748756
H4 0.748756 0.748756 -0.748756
C 0 0 0
H1 -0.748756 -0.748756 -0.748756
H2 0.748756 -0.748756 0.748756
H3 -0.748756 0.748756 0.748756
H4 0.748756 0.748756 -0.748756
C 0 0 0
H1 -0.748756 -0.748756 -0.748756
H2 0.748756 -0.748756 0.748756
H3 -0.748756 0.748756 0.748756
H4 0.748756 0.748756 -0.748756
C 0 0 0
H1 -0.748756 -0.748756 -0.748756
H2 0.748756 -0.748756 0.748756
H3 -0.748756 0.748756 0.748756
H4 0.748756 0.748756 -0.748756
C 0 0 0
H1 -0.748756 -0.748756 -0.748756
H2 0.748756 -0.748756 0.748756
H3 -0.748756 0.748756 0.748756
H4 0.748756 0.748756 -0.748756
C 0 0 0
H1 -0.748756 -0.748756 -0.748756
H2 0.748756 -0.748756 0.748756
H3 -0.748756 0.748756 0.748756
H4 0.748756 0.748756 -0.748756
C 0 0 0
H1 -0.748756 -0.748756 -0.748756
H2 0.748756 -0.748756 0.748756
H3 -0.748756 0.748756 0.748756
H4 0.748756 0.748756 -0.748756
C 0 0 0
H1 -0.748756 -0.748756 -0.748756
H2 0.748756 -0.748756 0.748756
H3 -0.748756 0.748756 0.748756
H4 0.748756 0.748756 -0.748756
C 0 0 0
H1 -0.748756 -0.748756 -0.748756
H2 0.748756 -0.748756 0.748756
H3 -0.748756 0.748756 0.748756
H4 0.748756 0.748756 -0.748756
C 0 0 0
H1 -0.748756 -0.748756 -0.748756
H2 0.748756 -0.748756 0.748756
H3 -0.748756 0.748756 0.748756
H4 0.748756 0.748756 -0.748756
C 0 0 0
H1 -0.748756 -0.748756 -0.748756
H2 0.748756 -0.748756 0.748756
H3 -0.748756 0.748756 0.748756
H4 0.748756 0.748756 -0.748756
C 0 0 0
H1 -0.748756 -0.748756 -0.748756
H2 0.748756 -0.748756 0.748756
H3 -0.748756 0.748756 0.748756
H4 0.748756 0.748756 -0.748756
C 0 0 0
H1 -0.748756 -0.748756 -0.748756
H2 0.748756 -0.748756 0.748756
H3 -0.748756 0.748756 0.748756
H4 0.748756 0.748756 -0.748756
C 0 0 0
H1 -0.748756 -0.748756 -0.748756
H2 0.748756 -0.748756 0.748756
H3 -0.748756 0.748756 0.748756
H4 0.748756 0.748756 -0.748756
C 0 0 0
H1 -0.748756 -0.748756 -0.748756
H2 0.748756 -0.748756 0.748756
H3 -0.748756 0.748756 0.748756
H4 0.748756 0.748756 -0.748756
C 0 0 0
H1 -0.748756 -0.748756 -0.748756
H2 0.748756 -0.748756 0.748756
H3 -0.748756 0.748756 0.748756
H4 0.748756 0.748756 -0.748756
C 0 0 0
H1 -0.748756 -0.748756 -0.748756
H2 0.748756 -0.748756 0.748756
H3 -0.748756 0.748756 0.748756
H4 0.748756 0.748756 -0.748756
C 0 0 0
H1 -0.748756 -0.748756 -0.748756
H2 0.748756 -0.748756 0.748756
H3 -0.748756 0.748756 0.748756
H4 0.748756 0.748756 -0.748756
C 0 0 0
H1 -0.748756 -0.748756 -0.748756
H2 0.748756 -0.748756 0.748756
H3 -0.748756 0.748756 0.748756
H4 0.748756 0.748756 -0.748756
C 0 0 0
H1 -0.748756 -0.748756 -0.748756
H2 0.748756 -0.748756 0.748756
H3 -0.748756 0.748756 0.748756
H4 0.748756 0.748756 -0.748756
C 0 0 0
H1 -0.748756 -0.748756 -0.748756
H2 0.748756 -0.748756 0.748756
H3 -0.748756 0.748756 0.748756
H4 0.748756 0.748756 -0.748756
C 0 0 0
H1 -0.748756 -0.748756 -0.748756
H2 0.748756 -0.748756 0.748756
H3 -0.748756 0.748756 0.748756
H4 0.748756 0.748756 -0.748756
C 0 0 0
H1 -0.748756 -0.748756 -0.748756
H2 0.748756 -0.748756 0.748756
H3 -0.748756 0.748756 0.748756
H4 0.748756 0.748756 -0.748756
C 0 0 0
H1 -0.748756 -0.748756 -0.748756
H2 0.748756 -0.748756 0.748756
H3 -0.748756 0.748756 0.748756
H4 0.748756 0.748756 -0.748756
C 0 0 0
H1 -0.748756 -0.748756 -0.748756
H2 0.748756 -0.748756 0.748756
H3 -0.748756 0.748756 0.748756
H4 0.748756 0.748756 -0.748756
C 0 0 0
H1 -0.748756 -0.748756 -0.748756
H2 0.748756 -0.748756 0.748756
H3 -0.748756 0.748756 0.748756
H4 0.748756 0.748756 -0.748756
C 0 0 0
H1 -0.748756 -0.748756 -0.748756
H2 0.748756 -0.748756 0.748756
H3 -0.748756 0.748756 0.748756
H4 0.748756 0.748756 -0.748756
C 0 0 0
H1 -0.748756 -0.748756 -0.748756
H2 0.748756 -0.748756 0.748756
H3 -0.748756 0.748756 0.748756
H4 0.748756 0.748756 -0.748756
C 0 0 0
H1 -0.748756 -0.748756 -0.748756
H2 0.748756 -0.748756 0.748756
H3 -0.748756 0.748756 0.748756
H4 0.748756 0.748756 -0.748756
C 0 0 0
H1 -0.748756 -0.748756 -0.748756
H2 0.748756 -0.748756 0.748756
H3 -0.748756 0.748756 0.748756
H4 0.748756 0.748756 -0.748756
C 0 0 0
H1 -0.748756 -0.748756 -0.748756
H2 0.748756 -0.748756 0.748756
H3 -0.748756 0.748756 0.748756
H4 0.748756 0.748756 -0.748756
C 0 0 0
H1 -0.748756 -0.748756 -0.748756
H2 0.748756 -0.748756 0.748756
H3 -0.748756 0.748756 0.748756
H4 0.748756 0.748756 -0.748756
C 0 0 0
H1 -0.748756 -0.748756 -0.748756
H2 0.748756 -0.748756 0.748756
H3 -0.748756 0.748756 0.748756
H4 0.748756 0.748756 -0.748756
C 0 0 0
H1 -0.748756 -0.748756 -0.748756
H2 0.748756 -0.748756 0.748756
H3 -0.748756 0.748756 0.748756
H4 0.748756 0.748756 -0.748756
C 0 0 0
H1 -0.748756 -0.748756 -0.748756
H2 0.748756 -0.748756 0.748756
H3 -0.748756 0.748756 0.748756
H4 0.748756 0.748756 -0.748756
C 0 0 0
H1 -0.748756 -0.748756 -0.748756
H2 0.748756 -0.748756 0.748756
H3 -0.748756 0.748756 0.748756
H4 0.748756 0.748756 -0.748756
C 0 0 0
H1 -0.748756 -0.748756 -0.748756
H2 0.748756 -0.748756 0.748756
H3 -0.748756 0.748756 0.748756
H4 0.748756 0.748756 -0.748756
C 0 0 0
H1 -0.748756 -0.748756 -0.748756
H2 0.748756 -0.748756 0.748756
H3 -0.748756 0.748756 0.748756
H4 0.748756 0.748756 -0.748756
C 0 0 0
H1 -0.748756 -0.748756 -0.748756
H2 0.748756 -0.748756 0.748756
H3 -0.748756 0.748756 0.748756
H4 0.748756 0.748756 -0.748756
C 0 0 0
H1 -0.748756 -0.748756 -0.748756
H2 0.748756 -0.748756 0.748756
H3 -0.748756 0.748756 0.748756
H4 0.748756 0.748756 -0.748756
C 0 0 0
H1 -0.748756 -0.748756 -0.748756
H2 0.748756 -0.748756 0.748756
H3 -0.748756 0.748756 0.748756
H4 0.748756 0.748756 -0.748756
C 0 0 0
H1 -0.748756 -0.748756 -0.748756
H2 0.748756 -0.748756 0.748756
H3 -0.748756 0.748756 0.748756
H4 0.748756 0.748756 -0.748756
C 0 0 0
H1 -0.748756 -0.748756 -0.748756
H2 0.748756 -0.748756 0.748756
H3 -0.748756 0.748756 0.748756
H4 0.748756 0.748756 -0.748756
C 0 0 0
H1 -0.748756 -0.748756 -0.748756
H2 0.748756 -0.748756 0.748756
H3 -0.748756 0.748756 0.748756
H4 0.748756 0.748756 -0.748756
C 0 0 0
H1 -0.748756 -0.748756 -0.748756
H2 0.748756 -0.748756 0.748756
H3 -0.748756 0.748756 0.748756
H4 0.748756 0.748756 -0.748756
C 0 0 0
H1 -0.748756 -0.748756 -0.748756
H2 0.748756 -0.748756 0.748756
H3 -0.748756 0.748756 0.748756
H4 0.748756 0.748756 -0.748756
C 0 0 0
H1 -0.748756 -0.748756 -0.748756
H2 0.748756 -0.748756 0.748756
H3 -0.748756 0.748756 0.748756
H4 0.748756 0.748756 -0.748756
C 0 0 0
H1 -0.748756 -0.748756 -0.748756
H2 0.748756 -0.748756 0.748756
H3 -0.748756 0.748756 0.748756
H4 0.748756 0.748756 -0.748756
C 0 0 0
H1 -0.748756 -0.748756 -0.748756
H2 0.748756 -0.748756 0.748756
H3 -0.748756 0.748756 0.748756
H4 0.748756 0.748756 -0.748756
C 0 0 0
H1 -0.748756 -0.748756 -0.748756
H2 0.748756 -0.748756 0.748756
H3 -0.748756 0.748756 0.748756
H4 0.748756 0.748756 -0.748756
C 0 0 0
H1 -0.748756 -0.748756 -0.748756
H2 0.748756 -0.748756 0.748756
H3 -0.748756 0.748756 0.748756
H4 0.748756 0.748756 -0.748756
C 0 0 0
H1 -0.748756 -0.748756 -0.748756
H2 0.748756 -0.748756 0.748756
H3 -0.748756 0.748756 0.748756
H4 0.748756 0.748756 -0.748756
C 0 0 0
H1 -0.748756 -0.748756 -0.748756
H2 0.748756 -0.748756 0.748756
H3 -0.748756 0.748756 0.748756
H4 0.748756 0.748756 -0.748756
C 0 0 0
H1 -0.748756 -0.748756 -0.748756
H2 0.748756 -0.748756 0.748756
H3 -0.748756 0.748756 0.748756
H4 0.748756 0.748756 -0.748756
C 0 0 0
H1 -0.748756 -0.748756 -0.748756
H2 0.748756 -0.748756 0.748756
H3 -0.748756 0.748756 0.748756
H4 0.748756 0.748756 -0.748756
C 0 0 0
H1 -0.748756 -0.748756 -0.748756
H2 0.748756 -0.748756 0.748756
H3 -0.748756 0.748756 0.748756
H4 0.748756 0.748756 -0.748756
C 0 0 0
H1 -0.748756 -0.748756 -0.748756
H2 0.748756 -0.748756 0.748756
H3 -0.748756 0.748756 0.748756
H4 0.748756 0.748756 -0.748756
C 0 0 0
H1 -0.748756 -0.748756 -0.748756
H2 0.748756 -0.748756 0.748756
H3 -0.748756 0.748756 0.748756
H4 0.748756 0.748756 -0.748756
C 0 0 0
H1 -0.748756 -0.748756 -0.748756
H2 0.748756 -0.748756 0.748756
H3 -0.748756 0.748756 0.748756
H4 0.748756 0.748756 -0.748756
C 0 0 0
H1 -0.748756 -0.748756 -0.748756
H2 0.748756 -0.748756 0.748756
H3 -0.748756 0.748756 0.748756
H4 0.748756 0.748756 -0.748756
